<?xml version="1.0" encoding="UTF-8"?>

<!-- generated on 2024-03-04 12:10:02 by Eclipse SUMO GUI Version 1.12.0
-->

<configuration xmlns:xsi="http://www.w3.org/2001/XMLSchema-instance" xsi:noNamespaceSchemaLocation="http://sumo.dlr.de/xsd/sumoConfiguration.xsd">

    <input>
	    <net-file value="manhattangrid.net.xml"/>
	    <route-files value="manhattangrid.rou.xml"/>
    </input>

</configuration>
