<?xml version="1.0" encoding="UTF-8"?>
<!-- generated on 2024-05-23 08:51:45.251005 by randomTrips.py UNKNOWN
  options: -n 6lane.net.xml -o 6lane.flows.xml <doubleminus>begin 0 <doubleminus>end 300 <doubleminus>flows 400 <doubleminus>jtrrouter <doubleminus>allow-fringe
-->
<routes xmlns:xsi="http://www.w3.org/2001/XMLSchema-instance" xsi:noNamespaceSchemaLocation="http://sumo.dlr.de/xsd/routes_file.xsd">
    <flow id="0" begin="0" end="300" period="400" from="E0"/>
    <flow id="1" begin="0" end="300" period="400" from="-E0"/>
    <flow id="2" begin="0" end="300" period="400" from="E0"/>
    <flow id="3" begin="0" end="300" period="400" from="E0"/>
    <flow id="4" begin="0" end="300" period="400" from="-E0"/>
    <flow id="5" begin="0" end="300" period="400" from="-E0"/>
    <flow id="6" begin="0" end="300" period="400" from="-E0"/>
    <flow id="7" begin="0" end="300" period="400" from="E0"/>
    <flow id="8" begin="0" end="300" period="400" from="-E0"/>
    <flow id="9" begin="0" end="300" period="400" from="E0"/>
    <flow id="10" begin="0" end="300" period="400" from="E0"/>
    <flow id="11" begin="0" end="300" period="400" from="-E0"/>
    <flow id="12" begin="0" end="300" period="400" from="E0"/>
    <flow id="13" begin="0" end="300" period="400" from="-E0"/>
    <flow id="14" begin="0" end="300" period="400" from="E0"/>
    <flow id="15" begin="0" end="300" period="400" from="E0"/>
    <flow id="16" begin="0" end="300" period="400" from="E0"/>
    <flow id="17" begin="0" end="300" period="400" from="-E0"/>
    <flow id="18" begin="0" end="300" period="400" from="E0"/>
    <flow id="19" begin="0" end="300" period="400" from="E0"/>
    <flow id="20" begin="0" end="300" period="400" from="E0"/>
    <flow id="21" begin="0" end="300" period="400" from="-E0"/>
    <flow id="22" begin="0" end="300" period="400" from="-E0"/>
    <flow id="23" begin="0" end="300" period="400" from="-E0"/>
    <flow id="24" begin="0" end="300" period="400" from="E0"/>
    <flow id="25" begin="0" end="300" period="400" from="-E0"/>
    <flow id="26" begin="0" end="300" period="400" from="-E0"/>
    <flow id="27" begin="0" end="300" period="400" from="E0"/>
    <flow id="28" begin="0" end="300" period="400" from="-E0"/>
    <flow id="29" begin="0" end="300" period="400" from="-E0"/>
    <flow id="30" begin="0" end="300" period="400" from="E0"/>
    <flow id="31" begin="0" end="300" period="400" from="E0"/>
    <flow id="32" begin="0" end="300" period="400" from="E0"/>
    <flow id="33" begin="0" end="300" period="400" from="-E0"/>
    <flow id="34" begin="0" end="300" period="400" from="-E0"/>
    <flow id="35" begin="0" end="300" period="400" from="-E0"/>
    <flow id="36" begin="0" end="300" period="400" from="E0"/>
    <flow id="37" begin="0" end="300" period="400" from="E0"/>
    <flow id="38" begin="0" end="300" period="400" from="E0"/>
    <flow id="39" begin="0" end="300" period="400" from="-E0"/>
    <flow id="40" begin="0" end="300" period="400" from="E0"/>
    <flow id="41" begin="0" end="300" period="400" from="E0"/>
    <flow id="42" begin="0" end="300" period="400" from="-E0"/>
    <flow id="43" begin="0" end="300" period="400" from="E0"/>
    <flow id="44" begin="0" end="300" period="400" from="-E0"/>
    <flow id="45" begin="0" end="300" period="400" from="-E0"/>
    <flow id="46" begin="0" end="300" period="400" from="E0"/>
    <flow id="47" begin="0" end="300" period="400" from="-E0"/>
    <flow id="48" begin="0" end="300" period="400" from="E0"/>
    <flow id="49" begin="0" end="300" period="400" from="E0"/>
    <flow id="50" begin="0" end="300" period="400" from="-E0"/>
    <flow id="51" begin="0" end="300" period="400" from="E0"/>
    <flow id="52" begin="0" end="300" period="400" from="-E0"/>
    <flow id="53" begin="0" end="300" period="400" from="-E0"/>
    <flow id="54" begin="0" end="300" period="400" from="-E0"/>
    <flow id="55" begin="0" end="300" period="400" from="E0"/>
    <flow id="56" begin="0" end="300" period="400" from="E0"/>
    <flow id="57" begin="0" end="300" period="400" from="E0"/>
    <flow id="58" begin="0" end="300" period="400" from="-E0"/>
    <flow id="59" begin="0" end="300" period="400" from="E0"/>
    <flow id="60" begin="0" end="300" period="400" from="E0"/>
    <flow id="61" begin="0" end="300" period="400" from="E0"/>
    <flow id="62" begin="0" end="300" period="400" from="-E0"/>
    <flow id="63" begin="0" end="300" period="400" from="-E0"/>
    <flow id="64" begin="0" end="300" period="400" from="E0"/>
    <flow id="65" begin="0" end="300" period="400" from="-E0"/>
    <flow id="66" begin="0" end="300" period="400" from="E0"/>
    <flow id="67" begin="0" end="300" period="400" from="-E0"/>
    <flow id="68" begin="0" end="300" period="400" from="-E0"/>
    <flow id="69" begin="0" end="300" period="400" from="E0"/>
    <flow id="70" begin="0" end="300" period="400" from="-E0"/>
    <flow id="71" begin="0" end="300" period="400" from="-E0"/>
    <flow id="72" begin="0" end="300" period="400" from="-E0"/>
    <flow id="73" begin="0" end="300" period="400" from="E0"/>
    <flow id="74" begin="0" end="300" period="400" from="-E0"/>
    <flow id="75" begin="0" end="300" period="400" from="E0"/>
    <flow id="76" begin="0" end="300" period="400" from="-E0"/>
    <flow id="77" begin="0" end="300" period="400" from="-E0"/>
    <flow id="78" begin="0" end="300" period="400" from="-E0"/>
    <flow id="79" begin="0" end="300" period="400" from="-E0"/>
    <flow id="80" begin="0" end="300" period="400" from="-E0"/>
    <flow id="81" begin="0" end="300" period="400" from="-E0"/>
    <flow id="82" begin="0" end="300" period="400" from="E0"/>
    <flow id="83" begin="0" end="300" period="400" from="-E0"/>
    <flow id="84" begin="0" end="300" period="400" from="-E0"/>
    <flow id="85" begin="0" end="300" period="400" from="E0"/>
    <flow id="86" begin="0" end="300" period="400" from="-E0"/>
    <flow id="87" begin="0" end="300" period="400" from="E0"/>
    <flow id="88" begin="0" end="300" period="400" from="-E0"/>
    <flow id="89" begin="0" end="300" period="400" from="-E0"/>
    <flow id="90" begin="0" end="300" period="400" from="E0"/>
    <flow id="91" begin="0" end="300" period="400" from="E0"/>
    <flow id="92" begin="0" end="300" period="400" from="-E0"/>
    <flow id="93" begin="0" end="300" period="400" from="E0"/>
    <flow id="94" begin="0" end="300" period="400" from="-E0"/>
    <flow id="95" begin="0" end="300" period="400" from="-E0"/>
    <flow id="96" begin="0" end="300" period="400" from="-E0"/>
    <flow id="97" begin="0" end="300" period="400" from="-E0"/>
    <flow id="98" begin="0" end="300" period="400" from="E0"/>
    <flow id="99" begin="0" end="300" period="400" from="E0"/>
    <flow id="100" begin="0" end="300" period="400" from="E0"/>
    <flow id="101" begin="0" end="300" period="400" from="E0"/>
    <flow id="102" begin="0" end="300" period="400" from="-E0"/>
    <flow id="103" begin="0" end="300" period="400" from="-E0"/>
    <flow id="104" begin="0" end="300" period="400" from="-E0"/>
    <flow id="105" begin="0" end="300" period="400" from="-E0"/>
    <flow id="106" begin="0" end="300" period="400" from="-E0"/>
    <flow id="107" begin="0" end="300" period="400" from="E0"/>
    <flow id="108" begin="0" end="300" period="400" from="E0"/>
    <flow id="109" begin="0" end="300" period="400" from="-E0"/>
    <flow id="110" begin="0" end="300" period="400" from="E0"/>
    <flow id="111" begin="0" end="300" period="400" from="E0"/>
    <flow id="112" begin="0" end="300" period="400" from="-E0"/>
    <flow id="113" begin="0" end="300" period="400" from="E0"/>
    <flow id="114" begin="0" end="300" period="400" from="-E0"/>
    <flow id="115" begin="0" end="300" period="400" from="-E0"/>
    <flow id="116" begin="0" end="300" period="400" from="E0"/>
    <flow id="117" begin="0" end="300" period="400" from="-E0"/>
    <flow id="118" begin="0" end="300" period="400" from="E0"/>
    <flow id="119" begin="0" end="300" period="400" from="E0"/>
    <flow id="120" begin="0" end="300" period="400" from="-E0"/>
    <flow id="121" begin="0" end="300" period="400" from="E0"/>
    <flow id="122" begin="0" end="300" period="400" from="-E0"/>
    <flow id="123" begin="0" end="300" period="400" from="-E0"/>
    <flow id="124" begin="0" end="300" period="400" from="E0"/>
    <flow id="125" begin="0" end="300" period="400" from="-E0"/>
    <flow id="126" begin="0" end="300" period="400" from="-E0"/>
    <flow id="127" begin="0" end="300" period="400" from="E0"/>
    <flow id="128" begin="0" end="300" period="400" from="-E0"/>
    <flow id="129" begin="0" end="300" period="400" from="-E0"/>
    <flow id="130" begin="0" end="300" period="400" from="E0"/>
    <flow id="131" begin="0" end="300" period="400" from="-E0"/>
    <flow id="132" begin="0" end="300" period="400" from="E0"/>
    <flow id="133" begin="0" end="300" period="400" from="E0"/>
    <flow id="134" begin="0" end="300" period="400" from="E0"/>
    <flow id="135" begin="0" end="300" period="400" from="E0"/>
    <flow id="136" begin="0" end="300" period="400" from="E0"/>
    <flow id="137" begin="0" end="300" period="400" from="-E0"/>
    <flow id="138" begin="0" end="300" period="400" from="-E0"/>
    <flow id="139" begin="0" end="300" period="400" from="-E0"/>
    <flow id="140" begin="0" end="300" period="400" from="E0"/>
    <flow id="141" begin="0" end="300" period="400" from="E0"/>
    <flow id="142" begin="0" end="300" period="400" from="-E0"/>
    <flow id="143" begin="0" end="300" period="400" from="E0"/>
    <flow id="144" begin="0" end="300" period="400" from="-E0"/>
    <flow id="145" begin="0" end="300" period="400" from="-E0"/>
    <flow id="146" begin="0" end="300" period="400" from="E0"/>
    <flow id="147" begin="0" end="300" period="400" from="E0"/>
    <flow id="148" begin="0" end="300" period="400" from="-E0"/>
    <flow id="149" begin="0" end="300" period="400" from="-E0"/>
    <flow id="150" begin="0" end="300" period="400" from="E0"/>
    <flow id="151" begin="0" end="300" period="400" from="E0"/>
    <flow id="152" begin="0" end="300" period="400" from="-E0"/>
    <flow id="153" begin="0" end="300" period="400" from="-E0"/>
    <flow id="154" begin="0" end="300" period="400" from="E0"/>
    <flow id="155" begin="0" end="300" period="400" from="E0"/>
    <flow id="156" begin="0" end="300" period="400" from="-E0"/>
    <flow id="157" begin="0" end="300" period="400" from="E0"/>
    <flow id="158" begin="0" end="300" period="400" from="-E0"/>
    <flow id="159" begin="0" end="300" period="400" from="-E0"/>
    <flow id="160" begin="0" end="300" period="400" from="E0"/>
    <flow id="161" begin="0" end="300" period="400" from="E0"/>
    <flow id="162" begin="0" end="300" period="400" from="-E0"/>
    <flow id="163" begin="0" end="300" period="400" from="-E0"/>
    <flow id="164" begin="0" end="300" period="400" from="E0"/>
    <flow id="165" begin="0" end="300" period="400" from="E0"/>
    <flow id="166" begin="0" end="300" period="400" from="E0"/>
    <flow id="167" begin="0" end="300" period="400" from="E0"/>
    <flow id="168" begin="0" end="300" period="400" from="-E0"/>
    <flow id="169" begin="0" end="300" period="400" from="-E0"/>
    <flow id="170" begin="0" end="300" period="400" from="E0"/>
    <flow id="171" begin="0" end="300" period="400" from="-E0"/>
    <flow id="172" begin="0" end="300" period="400" from="-E0"/>
    <flow id="173" begin="0" end="300" period="400" from="E0"/>
    <flow id="174" begin="0" end="300" period="400" from="E0"/>
    <flow id="175" begin="0" end="300" period="400" from="E0"/>
    <flow id="176" begin="0" end="300" period="400" from="E0"/>
    <flow id="177" begin="0" end="300" period="400" from="E0"/>
    <flow id="178" begin="0" end="300" period="400" from="E0"/>
    <flow id="179" begin="0" end="300" period="400" from="-E0"/>
    <flow id="180" begin="0" end="300" period="400" from="E0"/>
    <flow id="181" begin="0" end="300" period="400" from="E0"/>
    <flow id="182" begin="0" end="300" period="400" from="-E0"/>
    <flow id="183" begin="0" end="300" period="400" from="-E0"/>
    <flow id="184" begin="0" end="300" period="400" from="-E0"/>
    <flow id="185" begin="0" end="300" period="400" from="E0"/>
    <flow id="186" begin="0" end="300" period="400" from="E0"/>
    <flow id="187" begin="0" end="300" period="400" from="-E0"/>
    <flow id="188" begin="0" end="300" period="400" from="E0"/>
    <flow id="189" begin="0" end="300" period="400" from="-E0"/>
    <flow id="190" begin="0" end="300" period="400" from="E0"/>
    <flow id="191" begin="0" end="300" period="400" from="-E0"/>
    <flow id="192" begin="0" end="300" period="400" from="-E0"/>
    <flow id="193" begin="0" end="300" period="400" from="-E0"/>
    <flow id="194" begin="0" end="300" period="400" from="E0"/>
    <flow id="195" begin="0" end="300" period="400" from="E0"/>
    <flow id="196" begin="0" end="300" period="400" from="-E0"/>
    <flow id="197" begin="0" end="300" period="400" from="-E0"/>
    <flow id="198" begin="0" end="300" period="400" from="-E0"/>
    <flow id="199" begin="0" end="300" period="400" from="E0"/>
    <flow id="200" begin="0" end="300" period="400" from="-E0"/>
    <flow id="201" begin="0" end="300" period="400" from="-E0"/>
    <flow id="202" begin="0" end="300" period="400" from="E0"/>
    <flow id="203" begin="0" end="300" period="400" from="-E0"/>
    <flow id="204" begin="0" end="300" period="400" from="E0"/>
    <flow id="205" begin="0" end="300" period="400" from="E0"/>
    <flow id="206" begin="0" end="300" period="400" from="E0"/>
    <flow id="207" begin="0" end="300" period="400" from="-E0"/>
    <flow id="208" begin="0" end="300" period="400" from="-E0"/>
    <flow id="209" begin="0" end="300" period="400" from="E0"/>
    <flow id="210" begin="0" end="300" period="400" from="-E0"/>
    <flow id="211" begin="0" end="300" period="400" from="-E0"/>
    <flow id="212" begin="0" end="300" period="400" from="-E0"/>
    <flow id="213" begin="0" end="300" period="400" from="E0"/>
    <flow id="214" begin="0" end="300" period="400" from="E0"/>
    <flow id="215" begin="0" end="300" period="400" from="-E0"/>
    <flow id="216" begin="0" end="300" period="400" from="-E0"/>
    <flow id="217" begin="0" end="300" period="400" from="E0"/>
    <flow id="218" begin="0" end="300" period="400" from="-E0"/>
    <flow id="219" begin="0" end="300" period="400" from="-E0"/>
    <flow id="220" begin="0" end="300" period="400" from="E0"/>
    <flow id="221" begin="0" end="300" period="400" from="E0"/>
    <flow id="222" begin="0" end="300" period="400" from="E0"/>
    <flow id="223" begin="0" end="300" period="400" from="E0"/>
    <flow id="224" begin="0" end="300" period="400" from="E0"/>
    <flow id="225" begin="0" end="300" period="400" from="E0"/>
    <flow id="226" begin="0" end="300" period="400" from="-E0"/>
    <flow id="227" begin="0" end="300" period="400" from="-E0"/>
    <flow id="228" begin="0" end="300" period="400" from="E0"/>
    <flow id="229" begin="0" end="300" period="400" from="E0"/>
    <flow id="230" begin="0" end="300" period="400" from="-E0"/>
    <flow id="231" begin="0" end="300" period="400" from="-E0"/>
    <flow id="232" begin="0" end="300" period="400" from="E0"/>
    <flow id="233" begin="0" end="300" period="400" from="-E0"/>
    <flow id="234" begin="0" end="300" period="400" from="E0"/>
    <flow id="235" begin="0" end="300" period="400" from="-E0"/>
    <flow id="236" begin="0" end="300" period="400" from="-E0"/>
    <flow id="237" begin="0" end="300" period="400" from="-E0"/>
    <flow id="238" begin="0" end="300" period="400" from="E0"/>
    <flow id="239" begin="0" end="300" period="400" from="E0"/>
    <flow id="240" begin="0" end="300" period="400" from="-E0"/>
    <flow id="241" begin="0" end="300" period="400" from="-E0"/>
    <flow id="242" begin="0" end="300" period="400" from="E0"/>
    <flow id="243" begin="0" end="300" period="400" from="-E0"/>
    <flow id="244" begin="0" end="300" period="400" from="E0"/>
    <flow id="245" begin="0" end="300" period="400" from="-E0"/>
    <flow id="246" begin="0" end="300" period="400" from="-E0"/>
    <flow id="247" begin="0" end="300" period="400" from="-E0"/>
    <flow id="248" begin="0" end="300" period="400" from="-E0"/>
    <flow id="249" begin="0" end="300" period="400" from="-E0"/>
    <flow id="250" begin="0" end="300" period="400" from="E0"/>
    <flow id="251" begin="0" end="300" period="400" from="-E0"/>
    <flow id="252" begin="0" end="300" period="400" from="-E0"/>
    <flow id="253" begin="0" end="300" period="400" from="-E0"/>
    <flow id="254" begin="0" end="300" period="400" from="-E0"/>
    <flow id="255" begin="0" end="300" period="400" from="-E0"/>
    <flow id="256" begin="0" end="300" period="400" from="E0"/>
    <flow id="257" begin="0" end="300" period="400" from="E0"/>
    <flow id="258" begin="0" end="300" period="400" from="-E0"/>
    <flow id="259" begin="0" end="300" period="400" from="-E0"/>
    <flow id="260" begin="0" end="300" period="400" from="E0"/>
    <flow id="261" begin="0" end="300" period="400" from="E0"/>
    <flow id="262" begin="0" end="300" period="400" from="E0"/>
    <flow id="263" begin="0" end="300" period="400" from="E0"/>
    <flow id="264" begin="0" end="300" period="400" from="-E0"/>
    <flow id="265" begin="0" end="300" period="400" from="-E0"/>
    <flow id="266" begin="0" end="300" period="400" from="E0"/>
    <flow id="267" begin="0" end="300" period="400" from="E0"/>
    <flow id="268" begin="0" end="300" period="400" from="-E0"/>
    <flow id="269" begin="0" end="300" period="400" from="E0"/>
    <flow id="270" begin="0" end="300" period="400" from="E0"/>
    <flow id="271" begin="0" end="300" period="400" from="-E0"/>
    <flow id="272" begin="0" end="300" period="400" from="-E0"/>
    <flow id="273" begin="0" end="300" period="400" from="E0"/>
    <flow id="274" begin="0" end="300" period="400" from="E0"/>
    <flow id="275" begin="0" end="300" period="400" from="E0"/>
    <flow id="276" begin="0" end="300" period="400" from="-E0"/>
    <flow id="277" begin="0" end="300" period="400" from="E0"/>
    <flow id="278" begin="0" end="300" period="400" from="-E0"/>
    <flow id="279" begin="0" end="300" period="400" from="E0"/>
    <flow id="280" begin="0" end="300" period="400" from="-E0"/>
    <flow id="281" begin="0" end="300" period="400" from="E0"/>
    <flow id="282" begin="0" end="300" period="400" from="E0"/>
    <flow id="283" begin="0" end="300" period="400" from="-E0"/>
    <flow id="284" begin="0" end="300" period="400" from="E0"/>
    <flow id="285" begin="0" end="300" period="400" from="E0"/>
    <flow id="286" begin="0" end="300" period="400" from="E0"/>
    <flow id="287" begin="0" end="300" period="400" from="-E0"/>
    <flow id="288" begin="0" end="300" period="400" from="E0"/>
    <flow id="289" begin="0" end="300" period="400" from="-E0"/>
    <flow id="290" begin="0" end="300" period="400" from="-E0"/>
    <flow id="291" begin="0" end="300" period="400" from="E0"/>
    <flow id="292" begin="0" end="300" period="400" from="E0"/>
    <flow id="293" begin="0" end="300" period="400" from="-E0"/>
    <flow id="294" begin="0" end="300" period="400" from="-E0"/>
    <flow id="295" begin="0" end="300" period="400" from="E0"/>
    <flow id="296" begin="0" end="300" period="400" from="-E0"/>
    <flow id="297" begin="0" end="300" period="400" from="-E0"/>
    <flow id="298" begin="0" end="300" period="400" from="E0"/>
    <flow id="299" begin="0" end="300" period="400" from="-E0"/>
    <flow id="300" begin="0" end="300" period="400" from="-E0"/>
    <flow id="301" begin="0" end="300" period="400" from="-E0"/>
    <flow id="302" begin="0" end="300" period="400" from="E0"/>
    <flow id="303" begin="0" end="300" period="400" from="-E0"/>
    <flow id="304" begin="0" end="300" period="400" from="-E0"/>
    <flow id="305" begin="0" end="300" period="400" from="E0"/>
    <flow id="306" begin="0" end="300" period="400" from="E0"/>
    <flow id="307" begin="0" end="300" period="400" from="E0"/>
    <flow id="308" begin="0" end="300" period="400" from="E0"/>
    <flow id="309" begin="0" end="300" period="400" from="E0"/>
    <flow id="310" begin="0" end="300" period="400" from="-E0"/>
    <flow id="311" begin="0" end="300" period="400" from="-E0"/>
    <flow id="312" begin="0" end="300" period="400" from="E0"/>
    <flow id="313" begin="0" end="300" period="400" from="-E0"/>
    <flow id="314" begin="0" end="300" period="400" from="-E0"/>
    <flow id="315" begin="0" end="300" period="400" from="E0"/>
    <flow id="316" begin="0" end="300" period="400" from="-E0"/>
    <flow id="317" begin="0" end="300" period="400" from="-E0"/>
    <flow id="318" begin="0" end="300" period="400" from="-E0"/>
    <flow id="319" begin="0" end="300" period="400" from="E0"/>
    <flow id="320" begin="0" end="300" period="400" from="E0"/>
    <flow id="321" begin="0" end="300" period="400" from="E0"/>
    <flow id="322" begin="0" end="300" period="400" from="E0"/>
    <flow id="323" begin="0" end="300" period="400" from="E0"/>
    <flow id="324" begin="0" end="300" period="400" from="-E0"/>
    <flow id="325" begin="0" end="300" period="400" from="-E0"/>
    <flow id="326" begin="0" end="300" period="400" from="E0"/>
    <flow id="327" begin="0" end="300" period="400" from="E0"/>
    <flow id="328" begin="0" end="300" period="400" from="-E0"/>
    <flow id="329" begin="0" end="300" period="400" from="-E0"/>
    <flow id="330" begin="0" end="300" period="400" from="E0"/>
    <flow id="331" begin="0" end="300" period="400" from="E0"/>
    <flow id="332" begin="0" end="300" period="400" from="E0"/>
    <flow id="333" begin="0" end="300" period="400" from="E0"/>
    <flow id="334" begin="0" end="300" period="400" from="E0"/>
    <flow id="335" begin="0" end="300" period="400" from="-E0"/>
    <flow id="336" begin="0" end="300" period="400" from="E0"/>
    <flow id="337" begin="0" end="300" period="400" from="E0"/>
    <flow id="338" begin="0" end="300" period="400" from="E0"/>
    <flow id="339" begin="0" end="300" period="400" from="-E0"/>
    <flow id="340" begin="0" end="300" period="400" from="E0"/>
    <flow id="341" begin="0" end="300" period="400" from="-E0"/>
    <flow id="342" begin="0" end="300" period="400" from="-E0"/>
    <flow id="343" begin="0" end="300" period="400" from="E0"/>
    <flow id="344" begin="0" end="300" period="400" from="-E0"/>
    <flow id="345" begin="0" end="300" period="400" from="E0"/>
    <flow id="346" begin="0" end="300" period="400" from="E0"/>
    <flow id="347" begin="0" end="300" period="400" from="E0"/>
    <flow id="348" begin="0" end="300" period="400" from="E0"/>
    <flow id="349" begin="0" end="300" period="400" from="-E0"/>
    <flow id="350" begin="0" end="300" period="400" from="E0"/>
    <flow id="351" begin="0" end="300" period="400" from="E0"/>
    <flow id="352" begin="0" end="300" period="400" from="-E0"/>
    <flow id="353" begin="0" end="300" period="400" from="E0"/>
    <flow id="354" begin="0" end="300" period="400" from="-E0"/>
    <flow id="355" begin="0" end="300" period="400" from="E0"/>
    <flow id="356" begin="0" end="300" period="400" from="E0"/>
    <flow id="357" begin="0" end="300" period="400" from="-E0"/>
    <flow id="358" begin="0" end="300" period="400" from="-E0"/>
    <flow id="359" begin="0" end="300" period="400" from="-E0"/>
    <flow id="360" begin="0" end="300" period="400" from="-E0"/>
    <flow id="361" begin="0" end="300" period="400" from="E0"/>
    <flow id="362" begin="0" end="300" period="400" from="E0"/>
    <flow id="363" begin="0" end="300" period="400" from="E0"/>
    <flow id="364" begin="0" end="300" period="400" from="-E0"/>
    <flow id="365" begin="0" end="300" period="400" from="-E0"/>
    <flow id="366" begin="0" end="300" period="400" from="E0"/>
    <flow id="367" begin="0" end="300" period="400" from="E0"/>
    <flow id="368" begin="0" end="300" period="400" from="-E0"/>
    <flow id="369" begin="0" end="300" period="400" from="-E0"/>
    <flow id="370" begin="0" end="300" period="400" from="E0"/>
    <flow id="371" begin="0" end="300" period="400" from="-E0"/>
    <flow id="372" begin="0" end="300" period="400" from="-E0"/>
    <flow id="373" begin="0" end="300" period="400" from="E0"/>
    <flow id="374" begin="0" end="300" period="400" from="-E0"/>
    <flow id="375" begin="0" end="300" period="400" from="-E0"/>
    <flow id="376" begin="0" end="300" period="400" from="-E0"/>
    <flow id="377" begin="0" end="300" period="400" from="E0"/>
    <flow id="378" begin="0" end="300" period="400" from="E0"/>
    <flow id="379" begin="0" end="300" period="400" from="-E0"/>
    <flow id="380" begin="0" end="300" period="400" from="E0"/>
    <flow id="381" begin="0" end="300" period="400" from="E0"/>
    <flow id="382" begin="0" end="300" period="400" from="E0"/>
    <flow id="383" begin="0" end="300" period="400" from="-E0"/>
    <flow id="384" begin="0" end="300" period="400" from="-E0"/>
    <flow id="385" begin="0" end="300" period="400" from="E0"/>
    <flow id="386" begin="0" end="300" period="400" from="-E0"/>
    <flow id="387" begin="0" end="300" period="400" from="E0"/>
    <flow id="388" begin="0" end="300" period="400" from="E0"/>
    <flow id="389" begin="0" end="300" period="400" from="-E0"/>
    <flow id="390" begin="0" end="300" period="400" from="E0"/>
    <flow id="391" begin="0" end="300" period="400" from="E0"/>
    <flow id="392" begin="0" end="300" period="400" from="-E0"/>
    <flow id="393" begin="0" end="300" period="400" from="E0"/>
    <flow id="394" begin="0" end="300" period="400" from="E0"/>
    <flow id="395" begin="0" end="300" period="400" from="E0"/>
    <flow id="396" begin="0" end="300" period="400" from="E0"/>
    <flow id="397" begin="0" end="300" period="400" from="-E0"/>
    <flow id="398" begin="0" end="300" period="400" from="-E0"/>
    <flow id="399" begin="0" end="300" period="400" from="E0"/>
</routes>
