<?xml version="1.0" encoding="UTF-8"?>

<!-- generated on 2024-05-24 14:49:13 by Eclipse SUMO netedit Version 1.12.0
<configuration xmlns:xsi="http://www.w3.org/2001/XMLSchema-instance" xsi:noNamespaceSchemaLocation="http://sumo.dlr.de/xsd/netconvertConfiguration.xsd">

    <input>
        <sumo-net-file value="/home/telmat/project_galih/oprekan/6lane.net.xml"/>
    </input>

    <output>
        <output-file value="/home/telmat/project_galih/oprekan/6lane.net.xml"/>
    </output>

    <processing>
        <geometry.min-radius.fix.railways value="false"/>
        <geometry.max-grade.fix value="false"/>
        <offset.disable-normalization value="true"/>
        <lefthand value="false"/>
    </processing>

    <junctions>
        <no-internal-links value="true"/>
        <no-turnarounds value="true"/>
        <junctions.corner-detail value="5"/>
        <junctions.limit-turn-speed value="5.5"/>
        <rectangular-lane-cut value="false"/>
    </junctions>

    <pedestrian>
        <walkingareas value="false"/>
    </pedestrian>

    <report>
        <aggregate-warnings value="5"/>
    </report>

</configuration>
-->

<net version="1.9" junctionCornerDetail="5" limitTurnSpeed="5.50" xmlns:xsi="http://www.w3.org/2001/XMLSchema-instance" xsi:noNamespaceSchemaLocation="http://sumo.dlr.de/xsd/net_file.xsd">

    <location netOffset="0.00,0.00" convBoundary="0.52,-3.77,3048.61,0.10" origBoundary="-10000000000.00,-10000000000.00,10000000000.00,10000000000.00" projParameter="!"/>

    <edge id="-E0" from="J2" to="J1" priority="-1">
        <lane id="-E0_0" index="0" speed="41.67" length="3048.09" shape="3048.62,7.43 0.53,11.30"/>
        <lane id="-E0_1" index="1" speed="41.67" length="3048.09" shape="3048.62,4.23 0.53,8.10"/>
        <lane id="-E0_2" index="2" speed="41.67" length="3048.09" shape="3048.62,1.03 0.53,4.90"/>
        <lane id="-E0_3" index="3" speed="41.67" length="3048.09" shape="3048.61,-2.17 0.52,1.70"/>
    </edge>
    <edge id="E0" from="J1" to="J2" priority="-1">
        <lane id="E0_0" index="0" speed="41.67" length="3048.09" shape="0.51,-11.10 3048.60,-14.97"/>
        <lane id="E0_1" index="1" speed="41.67" length="3048.09" shape="0.51,-7.90 3048.60,-11.77"/>
        <lane id="E0_2" index="2" speed="41.67" length="3048.09" shape="0.51,-4.70 3048.60,-8.57"/>
        <lane id="E0_3" index="3" speed="41.67" length="3048.09" shape="0.52,-1.50 3048.61,-5.37"/>
    </edge>

    <junction id="J1" type="dead_end" x="0.52" y="0.10" incLanes="-E0_0 -E0_1 -E0_2 -E0_3" intLanes="" shape="0.52,0.10 0.54,12.90 0.52,0.10"/>
    <junction id="J2" type="dead_end" x="3048.61" y="-3.77" incLanes="E0_0 E0_1 E0_2 E0_3" intLanes="" shape="3048.61,-3.77 3048.59,-16.57 3048.61,-3.77"/>

</net>
